#------------------------------------------------------------------------------
#          Harvard University Atmospheric Chemistry Modeling Group            !
#------------------------------------------------------------------------------
#BOI
# !TITLE: Libraries for GEOS-Chem (netCDF-4 or netCDF-Classic)
# !AUTHORS: Bob Yantosca
# !AFFILIATION: GEOS-Chem Support Team
# !DATE: 08 May 2012
#EOI
#------------------------------------------------------------------------------
